distopf/cases/dss/ieee9500_dss/Test9500new_Power_elem_kVA.txt

CIRCUIT ELEMENT POWER FLOW

(Power Flow into element from indicated Bus)

Power Delivery Elements

  Bus                   Phase     kW     +j   kvar         kVA         PF

ELEMENT = "Vsource.SOURCE"
SOURCEBUS                   1     -3135.7 +j   -502.0     3175.6       0.9874
SOURCEBUS                   2     -3014.4 +j   -681.0     3090.4       0.9754
SOURCEBUS                   3     -2920.0 +j   -486.5     2960.2       0.9864
   TERMINAL TOTAL ............... -9070.1 +j  -1669.5     9222.4       0.9835
SOURCEBUS                   0         0.0 +j      0.0        0.0       1.0000
SOURCEBUS                   0         0.0 +j      0.0        0.0       1.0000
SOURCEBUS                   0         0.0 +j      0.0        0.0       1.0000
   TERMINAL TOTAL ...............     0.0 +j      0.0        0.0       1.0000

ELEMENT = "Line.HVMV115B1_SW"
HVMV115_HSB1                1      3135.7 +j    471.3     3170.9       0.9889
HVMV115_HSB1                2      3014.4 +j    651.9     3084.1       0.9774
HVMV115_HSB1                3      2920.0 +j    459.8     2956.0       0.9878
   TERMINAL TOTAL ...............  9070.1 +j   1583.0     9207.2       0.9851
HVMV115_HSB2                1     -3135.7 +j   -471.3     3170.9       0.9889
HVMV115_HSB2                2     -3014.4 +j   -651.9     3084.1       0.9774
HVMV115_HSB2                3     -2920.0 +j   -459.8     2956.0       0.9878
   TERMINAL TOTAL ............... -9070.1 +j  -1583.0     9207.2       0.9851

ELEMENT = "Line.HVMV69S1B4_SW"
REGXFMR_HVMV69SUB1_LSB1     1      2988.9 +j    495.3     3029.7       0.9865
REGXFMR_HVMV69SUB1_LSB1     2      3240.9 +j    543.5     3286.2       0.9862
REGXFMR_HVMV69SUB1_LSB1     3      2826.4 +j    471.4     2865.5       0.9864
   TERMINAL TOTAL ...............  9056.2 +j   1510.2     9181.3       0.9864
HVMV69SUB1_LSB2             1     -2988.9 +j   -495.3     3029.7       0.9865
HVMV69SUB1_LSB2             2     -3240.9 +j   -543.5     3286.2       0.9862
HVMV69SUB1_LSB2             3     -2826.4 +j   -471.4     2865.5       0.9864
   TERMINAL TOTAL ............... -9056.2 +j  -1510.2     9181.3       0.9864

ELEMENT = "Line.HVMV69S1B1_SW"
HVMV69SUB1_LSB2             1       973.7 +j     -6.2      973.7      -1.0000
HVMV69SUB1_LSB2             2       943.2 +j    -18.9      943.4      -0.9998
HVMV69SUB1_LSB2             3      1080.2 +j     26.5     1080.6       0.9997
   TERMINAL TOTAL ...............  2997.1 +j      1.5     2997.1       1.0000
HVMV69SUB1_HSB              1      -973.7 +j      6.2      973.7      -1.0000
HVMV69SUB1_HSB              2      -943.2 +j     18.9      943.4      -0.9998
HVMV69SUB1_HSB              3     -1080.2 +j    -26.5     1080.6       0.9997
   TERMINAL TOTAL ............... -2997.1 +j     -1.5     2997.1       1.0000

ELEMENT = "Line.HVMV_SUB_CONNECTOR"
HVMV11SUB1_LSB              1       971.9 +j    -16.5      972.1      -0.9999
HVMV11SUB1_LSB              2       941.6 +j    -28.6      942.0      -0.9995
HVMV11SUB1_LSB              3      1078.1 +j     13.8     1078.2       0.9999
   TERMINAL TOTAL ...............  2991.6 +j    -31.4     2991.7      -0.9999
HVMV_SUB1_48332             1      -971.9 +j     16.5      972.1      -0.9999
HVMV_SUB1_48332             2      -941.6 +j     28.6      942.0      -0.9995
HVMV_SUB1_48332             3     -1078.1 +j    -13.8     1078.2       0.9999
   TERMINAL TOTAL ............... -2991.6 +j     31.4     2991.7      -0.9999

ELEMENT = "Line.LN5710794-3"
HVMV_SUB1_48332             1       971.9 +j    -16.5      972.1      -0.9999
HVMV_SUB1_48332             2       941.6 +j    -28.6      942.0      -0.9995
HVMV_SUB1_48332             3      1078.1 +j     13.8     1078.2       0.9999
   TERMINAL TOTAL ...............  2991.6 +j    -31.4     2991.7      -0.9999
D5710794-3_INT              1      -971.9 +j     16.6      972.0      -0.9999
D5710794-3_INT              2      -941.5 +j     28.7      941.9      -0.9995
D5710794-3_INT              3     -1078.0 +j    -13.6     1078.1       0.9999
   TERMINAL TOTAL ............... -2991.4 +j     31.8     2991.6      -0.9999

ELEMENT = "Line.HVMV69S1B2_SW"
D5710794-3_INT              1       971.9 +j    -16.6      972.0      -0.9999
D5710794-3_INT              2       941.5 +j    -28.7      941.9      -0.9995
D5710794-3_INT              3      1078.0 +j     13.6     1078.1       0.9999
   TERMINAL TOTAL ...............  2991.4 +j    -31.8     2991.6      -0.9999
E192860                     1      -971.9 +j     16.6      972.0      -0.9999
E192860                     2      -941.5 +j     28.7      941.9      -0.9995
E192860                     3     -1078.0 +j    -13.6     1078.1       0.9999
   TERMINAL TOTAL ............... -2991.4 +j     31.8     2991.6      -0.9999

ELEMENT = "Line.HVMV69S1B3_SW"
HVMV69SUB1_LSB2             1      2015.2 +j    501.5     2076.7       0.9704
HVMV69SUB1_LSB2             2      2297.7 +j    562.4     2365.5       0.9713
HVMV69SUB1_LSB2             3      1746.2 +j    444.8     1801.9       0.9690
   TERMINAL TOTAL ...............  6059.1 +j   1508.7     6244.1       0.9704
HVMV69S1S2_1                1     -2015.2 +j   -501.5     2076.7       0.9704
HVMV69S1S2_1                2     -2297.7 +j   -562.4     2365.5       0.9713
HVMV69S1S2_1                3     -1746.2 +j   -444.8     1801.9       0.9690
   TERMINAL TOTAL ............... -6059.1 +j  -1508.7     6244.1       0.9704

ELEMENT = "Line.HVMV69S1S2-1"
HVMV69S1S2_1                1      2015.2 +j    501.5     2076.7       0.9704
HVMV69S1S2_1                2      2297.7 +j    562.4     2365.5       0.9713
HVMV69S1S2_1                3      1746.2 +j    444.8     1801.9       0.9690
   TERMINAL TOTAL ...............  6059.1 +j   1508.7     6244.1       0.9704
HVMV69S1S2_2                1     -2015.0 +j   -506.9     2077.7       0.9698
HVMV69S1S2_2                2     -2297.2 +j   -567.7     2366.3       0.9708
HVMV69S1S2_2                3     -1745.6 +j   -450.8     1802.9       0.9682
   TERMINAL TOTAL ............... -6057.8 +j  -1525.4     6246.9       0.9697

ELEMENT = "Line.HVMV69S1S2-2"
HVMV69S1S2_2                1      2015.0 +j    506.9     2077.7       0.9698
HVMV69S1S2_2                2      2297.2 +j    567.7     2366.3       0.9708
HVMV69S1S2_2                3      1745.6 +j    450.8     1802.9       0.9682
   TERMINAL TOTAL ...............  6057.8 +j   1525.4     6246.9       0.9697
HVMV69S1S2_3                1     -2014.7 +j   -511.0     2078.5       0.9693
HVMV69S1S2_3                2     -2296.8 +j   -571.7     2366.9       0.9704
HVMV69S1S2_3                3     -1745.2 +j   -455.3     1803.6       0.9676
   TERMINAL TOTAL ............... -6056.8 +j  -1538.0     6249.0       0.9692

ELEMENT = "Line.HVMV69S1S2-3"
HVMV69S1S2_3                1      2014.7 +j    511.0     2078.5       0.9693
HVMV69S1S2_3                2      2296.8 +j    571.7     2366.9       0.9704
HVMV69S1S2_3                3      1745.2 +j    455.3     1803.6       0.9676
   TERMINAL TOTAL ...............  6056.8 +j   1538.0     6249.0       0.9692
HVMV69S1S2_4                1     -2014.5 +j   -515.0     2079.3       0.9688
HVMV69S1S2_4                2     -2296.5 +j   -575.7     2367.5       0.9700
HVMV69S1S2_4                3     -1744.8 +j   -459.7     1804.4       0.9670
   TERMINAL TOTAL ............... -6055.8 +j  -1550.5     6251.2       0.9688

ELEMENT = "Line.HVMV69S1S2-4"
HVMV69S1S2_4                1      2014.5 +j    515.0     2079.3       0.9688
HVMV69S1S2_4                2      2296.5 +j    575.7     2367.5       0.9700
HVMV69S1S2_4                3      1744.8 +j    459.7     1804.4       0.9670
   TERMINAL TOTAL ...............  6055.8 +j   1550.5     6251.2       0.9688
HVMV69S1S2_5                1     -2013.9 +j   -525.9     2081.4       0.9676
HVMV69S1S2_5                2     -2295.5 +j   -586.4     2369.2       0.9689
HVMV69S1S2_5                3     -1743.8 +j   -471.7     1806.4       0.9653
   TERMINAL TOTAL ............... -6053.2 +j  -1583.9     6257.0       0.9674

ELEMENT = "Line.HVMV69S1S2-5"
HVMV69S1S2_5                1      2013.9 +j    525.9     2081.4       0.9676
HVMV69S1S2_5                2      2295.5 +j    586.4     2369.2       0.9689
HVMV69S1S2_5                3      1743.8 +j    471.7     1806.4       0.9653
   TERMINAL TOTAL ...............  6053.2 +j   1583.9     6257.0       0.9674
HVMV69S1S2_6                1     -2013.3 +j   -536.6     2083.6       0.9663
HVMV69S1S2_6                2     -2294.5 +j   -597.0     2370.9       0.9678
HVMV69S1S2_6                3     -1742.7 +j   -483.5     1808.5       0.9636
   TERMINAL TOTAL ............... -6050.5 +j  -1617.2     6262.9       0.9661

ELEMENT = "Line.HVMV69S1S2-6"
HVMV69S1S2_6                1      2013.3 +j    536.6     2083.6       0.9663
HVMV69S1S2_6                2      2294.5 +j    597.0     2370.9       0.9678
HVMV69S1S2_6                3      1742.7 +j    483.5     1808.5       0.9636
   TERMINAL TOTAL ...............  6050.5 +j   1617.2     6262.9       0.9661
HVMV69S1S2_7                1     -2012.7 +j   -547.4     2085.8       0.9649
HVMV69S1S2_7                2     -2293.5 +j   -607.6     2372.6       0.9667
HVMV69S1S2_7                3     -1741.6 +j   -495.4     1810.7       0.9618
   TERMINAL TOTAL ............... -6047.8 +j  -1650.4     6269.0       0.9647

ELEMENT = "Line.HVMV69S1S2-7"
HVMV69S1S2_7                1      2012.7 +j    547.4     2085.8       0.9649
HVMV69S1S2_7                2      2293.5 +j    607.6     2372.6       0.9667
HVMV69S1S2_7                3      1741.6 +j    495.4     1810.7       0.9618
   TERMINAL TOTAL ...............  6047.8 +j   1650.4     6269.0       0.9647
HVMV69S1S2_8                1     -2012.4 +j   -552.8     2087.0       0.9643
HVMV69S1S2_8                2     -2293.0 +j   -612.9     2373.5       0.9661
HVMV69S1S2_8                3     -1741.0 +j   -501.4     1811.8       0.9610
   TERMINAL TOTAL ............... -6046.5 +j  -1667.0     6272.1       0.9640

ELEMENT = "Line.HVMV69S1S2-8"
HVMV69S1S2_8                1      2012.4 +j    552.8     2087.0       0.9643
HVMV69S1S2_8                2      2293.0 +j    612.9     2373.5       0.9661
HVMV69S1S2_8                3      1741.0 +j    501.4     1811.8       0.9610
   TERMINAL TOTAL ...............  6046.5 +j   1667.0     6272.1       0.9640
HVMV69S1S2_9                1     -2012.1 +j   -558.1     2088.1       0.9636
HVMV69S1S2_9                2     -2292.5 +j   -618.2     2374.4       0.9655
HVMV69S1S2_9                3     -1740.5 +j   -507.3     1812.9       0.9601
   TERMINAL TOTAL ............... -6045.1 +j  -1683.6     6275.2       0.9633

ELEMENT = "Line.HVMV69S1S2-9"
HVMV69S1S2_9                1      2012.1 +j    558.1     2088.1       0.9636
HVMV69S1S2_9                2      2292.5 +j    618.2     2374.4       0.9655
HVMV69S1S2_9                3      1740.5 +j    507.3     1812.9       0.9601
   TERMINAL TOTAL ...............  6045.1 +j   1683.6     6275.2       0.9633
HVMV69S1S2_10               1     -2011.8 +j   -563.5     2089.2       0.9629
HVMV69S1S2_10               2     -2292.0 +j   -623.4     2375.3       0.9649
HVMV69S1S2_10               3     -1740.0 +j   -513.2     1814.1       0.9591
   TERMINAL TOTAL ............... -6043.8 +j  -1700.1     6278.3       0.9626

ELEMENT = "Line.HVMV69S1S2-10"
HVMV69S1S2_10               1      2011.8 +j    563.5     2089.2       0.9629
HVMV69S1S2_10               2      2292.0 +j    623.4     2375.3       0.9649
HVMV69S1S2_10               3      1740.0 +j    513.2     1814.1       0.9591
   TERMINAL TOTAL ...............  6043.8 +j   1700.1     6278.3       0.9626
HVMV69SUB2_LNB              1     -2011.8 +j   -563.5     2089.2       0.9629
HVMV69SUB2_LNB              2     -2292.0 +j   -623.4     2375.3       0.9649
HVMV69SUB2_LNB              3     -1740.0 +j   -513.2     1814.1       0.9591
   TERMINAL TOTAL ............... -6043.8 +j  -1700.1     6278.3       0.9626

ELEMENT = "Line.HVMV69S2B1_SW"
HVMV69SUB2_LNB              1       743.6 +j    113.3      752.1       0.9886
HVMV69SUB2_LNB              2      1115.2 +j    203.3     1133.6       0.9838
HVMV69SUB2_LNB              3      1138.5 +j    312.3     1180.5       0.9644
   TERMINAL TOTAL ...............  2997.2 +j    628.8     3062.5       0.9787
HVMV69SUB2_HSB              1      -743.6 +j   -113.3      752.1       0.9886
HVMV69SUB2_HSB              2     -1115.2 +j   -203.3     1133.6       0.9838
HVMV69SUB2_HSB              3     -1138.5 +j   -312.3     1180.5       0.9644
   TERMINAL TOTAL ............... -2997.2 +j   -628.8     3062.5       0.9787

ELEMENT = "Line.HVMV69S2B2_SW"
HVMV11SUB2_LSB              1       742.5 +j    107.0      750.2       0.9898
HVMV11SUB2_LSB              2      1112.8 +j    189.1     1128.8       0.9859
HVMV11SUB2_LSB              3      1135.9 +j    296.9     1174.1       0.9675
   TERMINAL TOTAL ...............  2991.2 +j    593.0     3049.5       0.9809
M1047300                    1      -742.5 +j   -107.0      750.2       0.9898
M1047300                    2     -1112.8 +j   -189.1     1128.8       0.9859
M1047300                    3     -1135.9 +j   -296.9     1174.1       0.9675
   TERMINAL TOTAL ............... -2991.2 +j   -593.0     3049.5       0.9809

ELEMENT = "Line.HVMV69S2B3_SW"
HVMV69SUB2_LNB              1      1268.2 +j    450.2     1345.8       0.9424
HVMV69SUB2_LNB              2      1176.8 +j    420.2     1249.6       0.9418
HVMV69SUB2_LNB              3       601.5 +j    201.0      634.1       0.9485
   TERMINAL TOTAL ...............  3046.5 +j   1071.3     3229.4       0.9434
HVMV69S2S3_1                1     -1268.2 +j   -450.2     1345.8       0.9424
HVMV69S2S3_1                2     -1176.8 +j   -420.2     1249.6       0.9418
HVMV69S2S3_1                3      -601.5 +j   -201.0      634.1       0.9485
   TERMINAL TOTAL ............... -3046.5 +j  -1071.3     3229.4       0.9434

ELEMENT = "Line.HVMV69S2S3-1"
HVMV69S2S3_1                1      1268.2 +j    450.2     1345.8       0.9424
HVMV69S2S3_1                2      1176.8 +j    420.2     1249.6       0.9418
HVMV69S2S3_1                3       601.5 +j    201.0      634.1       0.9485
   TERMINAL TOTAL ...............  3046.5 +j   1071.3     3229.4       0.9434
HVMV69S2S3_2                1     -1268.4 +j   -476.8     1355.1       0.9360
HVMV69S2S3_2                2     -1176.5 +j   -448.8     1259.2       0.9343
HVMV69S2S3_2                3      -599.8 +j   -230.6      642.6       0.9334
   TERMINAL TOTAL ............... -3044.7 +j  -1156.2     3256.9       0.9349

ELEMENT = "Line.HVMV69S3B1_SW"
HVMV69S2S3_2                1      1268.4 +j    476.8     1355.1       0.9360
HVMV69S2S3_2                2      1176.5 +j    448.8     1259.2       0.9343
HVMV69S2S3_2                3       599.8 +j    230.6      642.6       0.9334
   TERMINAL TOTAL ...............  3044.7 +j   1156.2     3256.9       0.9349
HVMV69SUB3_HSB              1     -1268.4 +j   -476.8     1355.1       0.9360
HVMV69SUB3_HSB              2     -1176.5 +j   -448.8     1259.2       0.9343
HVMV69SUB3_HSB              3      -599.8 +j   -230.6      642.6       0.9334
   TERMINAL TOTAL ............... -3044.7 +j  -1156.2     3256.9       0.9349

ELEMENT = "Line.HVMV69S3B2_SW"
HVMV11SUB3_LSB              1      1265.0 +j    456.5     1344.8       0.9406
HVMV11SUB3_LSB              2      1173.6 +j    431.3     1250.3       0.9386
HVMV11SUB3_LSB              3       599.0 +j    226.1      640.2       0.9356
   TERMINAL TOTAL ...............  3037.6 +j   1113.8     3235.3       0.9389
E203026                     1     -1265.0 +j   -456.5     1344.8       0.9406
E203026                     2     -1173.6 +j   -431.3     1250.3       0.9386
E203026                     3      -599.0 +j   -226.1      640.2       0.9356
   TERMINAL TOTAL ............... -3037.6 +j  -1113.8     3235.3       0.9389

ELEMENT = "Line.LN5815900-1"
E192860                     1       971.9 +j    -16.6      972.0      -0.9999
E192860                     2       941.5 +j    -28.7      941.9      -0.9995
E192860                     3      1078.0 +j     13.6     1078.1       0.9999
   TERMINAL TOTAL ...............  2991.4 +j    -31.8     2991.6      -0.9999
M1209817                    1      -971.8 +j     16.8      972.0      -0.9999
M1209817                    2      -941.4 +j     28.8      941.9      -0.9995
M1209817                    3     -1078.0 +j    -13.4     1078.1       0.9999
   TERMINAL TOTAL ............... -2991.2 +j     32.2     2991.4      -0.9999

ELEMENT = "Line.LN5742828-1"
M1209817                    1       971.8 +j    -16.8      972.0      -0.9999
M1209817                    2       941.4 +j    -28.8      941.9      -0.9995
M1209817                    3      1078.0 +j     13.4     1078.1       0.9999
   TERMINAL TOTAL ...............  2991.2 +j    -32.2     2991.4      -0.9999
L2801909                    1      -971.7 +j     16.9      971.9      -0.9998
L2801909                    2      -941.4 +j     29.0      941.8      -0.9995
L2801909                    3     -1077.9 +j    -13.2     1078.0       0.9999
   TERMINAL TOTAL ............... -2991.0 +j     32.6     2991.2      -0.9999

ELEMENT = "Line.LN5742828-2"
L2801909                    1       971.7 +j    -16.9      971.9      -0.9998
L2801909                    2       941.4 +j    -29.0      941.8      -0.9995
L2801909                    3      1073.8 +j     12.1     1073.8       0.9999
   TERMINAL TOTAL ...............  2986.9 +j    -33.8     2987.1      -0.9999
M1209814                    1      -971.6 +j     17.4      971.7      -0.9998
M1209814                    2      -941.2 +j     29.3      941.6      -0.9995
M1209814                    3     -1073.5 +j    -11.6     1073.6       0.9999
   TERMINAL TOTAL ............... -2986.3 +j     35.1     2986.5      -0.9999

ELEMENT = "Line.LN5473414-1"
M1209814                    1       971.6 +j    -17.4      971.7      -0.9998
M1209814                    2       941.2 +j    -29.3      941.6      -0.9995
M1209814                    3      1073.5 +j     11.6     1073.6       0.9999
   TERMINAL TOTAL ...............  2986.3 +j    -35.1     2986.5      -0.9999
M1209811                    1      -971.3 +j     18.1      971.5      -0.9998
M1209811                    2      -940.8 +j     29.9      941.3      -0.9995
M1209811                    3     -1073.2 +j    -10.7     1073.3       0.9999
   TERMINAL TOTAL ............... -2985.3 +j     37.2     2985.6      -0.9999

ELEMENT = "Line.LN5714974-1"
M1209811                    1       971.3 +j    -18.1      971.5      -0.9998
M1209811                    2       940.8 +j    -29.9      941.3      -0.9995
M1209811                    3      1073.2 +j     10.7     1073.3       0.9999
   TERMINAL TOTAL ...............  2985.3 +j    -37.2     2985.6      -0.9999
M1209807                    1      -971.0 +j     18.9      971.2      -0.9998
M1209807                    2      -940.5 +j     30.5      941.0      -0.9995
M1209807                    3     -1072.8 +j     -9.8     1072.9       1.0000
   TERMINAL TOTAL ............... -2984.3 +j     39.6     2984.5      -0.9999

ELEMENT = "Line.LN5896798-1"
M1209807                    1       971.0 +j    -18.9      971.2      -0.9998
M1209807                    2       940.5 +j    -30.5      941.0      -0.9995
M1209807                    3      1072.8 +j      9.8     1072.9       1.0000
   TERMINAL TOTAL ...............  2984.3 +j    -39.6     2984.5      -0.9999
M1209805                    1      -970.9 +j     19.1      971.0      -0.9998
M1209805                    2      -940.3 +j     30.7      940.9      -0.9995
M1209805                    3     -1072.7 +j     -9.4     1072.7       1.0000
   TERMINAL TOTAL ............... -2983.9 +j     40.4     2984.2      -0.9999

ELEMENT = "Line.LN5775442-1"
M1209805                    1       970.9 +j    -19.1      971.0      -0.9998
M1209805                    2       940.3 +j    -30.7      940.9      -0.9995
M1209805                    3      1072.7 +j      9.4     1072.7       1.0000
   TERMINAL TOTAL ...............  2983.9 +j    -40.4     2984.2      -0.9999
L2823592                    1      -970.6 +j     19.8      970.8      -0.9998
L2823592                    2      -940.0 +j     31.3      940.6      -0.9994
L2823592                    3     -1072.3 +j     -8.6     1072.4       1.0000
   TERMINAL TOTAL ............... -2983.0 +j     42.5     2983.3      -0.9999

ELEMENT = "Line.CAP_1A"
L2823592                    1       968.8 +j    -20.3      969.0      -0.9998
   TERMINAL TOTAL ...............   968.8 +j    -20.3      969.0      -0.9998
L2823592_CAP                1      -968.8 +j     20.3      969.0      -0.9998
   TERMINAL TOTAL ...............  -968.8 +j     20.3      969.0      -0.9998

ELEMENT = "Line.CAP_1B"
L2823592                    2       940.0 +j    -31.3      940.6      -0.9994
   TERMINAL TOTAL ...............   940.0 +j    -31.3      940.6      -0.9994
L2823592_CAP                2      -940.0 +j     31.3      940.5      -0.9994
   TERMINAL TOTAL ...............  -940.0 +j     31.3      940.5      -0.9994

ELEMENT = "Line.CAP_1C"
L2823592                    3      1072.3 +j      8.6     1072.4       1.0000
   TERMINAL TOTAL ...............  1072.3 +j      8.6     1072.4       1.0000
L2823592_CAP                3     -1072.3 +j     -8.6     1072.4       1.0000
   TERMINAL TOTAL ............... -1072.3 +j     -8.6     1072.4       1.0000

ELEMENT = "Line.LN5513564-2"
L2823592_CAP                1       968.8 +j    -20.3      969.0      -0.9998
L2823592_CAP                2       940.0 +j    -31.3      940.5      -0.9994
L2823592_CAP                3      1072.3 +j      8.6     1072.4       1.0000
   TERMINAL TOTAL ...............  2981.1 +j    -43.0     2981.4      -0.9999
R20185                      1      -968.8 +j     20.3      969.0      -0.9998
R20185                      2      -940.0 +j     31.3      940.5      -0.9994
R20185                      3     -1072.3 +j     -8.5     1072.3       1.0000
   TERMINAL TOTAL ............... -2981.1 +j     43.1     2981.4      -0.9999

ELEMENT = "Line.LN5513564-1"
R20185                      1       968.8 +j    -20.3      969.0      -0.9998
R20185                      2       940.0 +j    -31.3      940.5      -0.9994
R20185                      3      1072.3 +j      8.5     1072.3       1.0000
   TERMINAL TOTAL ...............  2981.1 +j    -43.1     2981.4      -0.9999
D5513564-1_INT              1      -968.7 +j     20.5      968.9      -0.9998
D5513564-1_INT              2      -939.9 +j     31.4      940.5      -0.9994
D5513564-1_INT              3     -1072.2 +j     -8.4     1072.3       1.0000
   TERMINAL TOTAL ............... -2980.9 +j     43.5     2981.2      -0.9999

ELEMENT = "Line.XJ171_48332_SW"
D5513564-1_INT              1       968.7 +j    -20.5      968.9      -0.9998
D5513564-1_INT              2       939.9 +j    -31.4      940.5      -0.9994
D5513564-1_INT              3      1072.2 +j      8.4     1072.3       1.0000
   TERMINAL TOTAL ...............  2980.9 +j    -43.5     2981.2      -0.9999
E192201                     1      -968.7 +j     20.5      968.9      -0.9998
E192201                     2      -939.9 +j     31.4      940.5      -0.9994
E192201                     3     -1072.2 +j     -8.4     1072.3       1.0000
   TERMINAL TOTAL ............... -2980.9 +j     43.5     2981.2      -0.9999

ELEMENT = "Line.LN6321409-1"
E192201                     1       968.7 +j    -20.5      968.9      -0.9998
E192201                     2       939.9 +j    -31.4      940.5      -0.9994
E192201                     3      1072.2 +j      8.4     1072.3       1.0000
   TERMINAL TOTAL ...............  2980.9 +j    -43.5     2981.2      -0.9999
M1209800                    1      -968.6 +j     20.9      968.8      -0.9998
M1209800                    2      -939.8 +j     31.7      940.3      -0.9994
M1209800                    3     -1072.0 +j     -7.9     1072.1       1.0000
   TERMINAL TOTAL ............... -2980.4 +j     44.6     2980.7      -0.9999

ELEMENT = "Line.LN5654466-1"
M1209800                    1       968.6 +j    -20.9      968.8      -0.9998
M1209800                    2       939.8 +j    -31.7      940.3      -0.9994
M1209800                    3       830.8 +j    -61.9      833.1      -0.9972
   TERMINAL TOTAL ...............  2739.2 +j   -114.4     2741.6      -0.9991
M1209797                    1      -968.3 +j     21.3      968.5      -0.9998
M1209797                    2      -939.6 +j     32.2      940.2      -0.9994
M1209797                    3      -830.7 +j     62.2      833.1      -0.9972
   TERMINAL TOTAL ............... -2738.6 +j    115.7     2741.1      -0.9991

ELEMENT = "Line.LN6291242-1"
M1209797                    1       968.3 +j    -21.3      968.5      -0.9998
M1209797                    2       939.6 +j    -32.2      940.2      -0.9994
M1209797                    3       830.7 +j    -62.2      833.1      -0.9972
   TERMINAL TOTAL ...............  2738.6 +j   -115.7     2741.1      -0.9991
M1209791                    1      -968.0 +j     21.8      968.3      -0.9997
M1209791                    2      -939.5 +j     32.6      940.0      -0.9994
M1209791                    3      -830.7 +j     62.5      833.0      -0.9972
   TERMINAL TOTAL ............... -2738.2 +j    116.8     2740.6      -0.9991

ELEMENT = "Line.LN5654472-1"
M1209791                    1       928.3 +j    -32.4      928.8      -0.9994
M1209791                    2       939.5 +j    -32.6      940.0      -0.9994
M1209791                    3       830.7 +j    -62.5      833.0      -0.9972
   TERMINAL TOTAL ...............  2698.4 +j   -127.4     2701.4      -0.9989
M1209790                    1      -928.1 +j     32.7      928.6      -0.9994
M1209790                    2      -939.3 +j     32.9      939.9      -0.9994
M1209790                    3      -830.6 +j     62.7      833.0      -0.9972
   TERMINAL TOTAL ............... -2698.0 +j    128.3     2701.0      -0.9989

ELEMENT = "Line.LN5594242-1"
M1209790                    1       928.1 +j    -32.7      928.6      -0.9994
M1209790                    2       939.3 +j    -32.9      939.9      -0.9994
M1209790                    3       830.6 +j    -62.7      833.0      -0.9972
   TERMINAL TOTAL ...............  2698.0 +j   -128.3     2701.0      -0.9989
M1209788                    1      -927.9 +j     33.0      928.5      -0.9994
M1209788                    2      -939.2 +j     33.3      939.8      -0.9994
M1209788                    3      -830.5 +j     62.9      832.9      -0.9971
   TERMINAL TOTAL ............... -2697.6 +j    129.3     2700.7      -0.9989

ELEMENT = "Line.LN6351519-1"
M1209788                    1       927.9 +j    -33.0      928.5      -0.9994
M1209788                    2       939.2 +j    -33.3      939.8      -0.9994
M1209788                    3       824.3 +j    -64.5      826.9      -0.9969
   TERMINAL TOTAL ...............  2691.4 +j   -130.9     2694.6      -0.9988
M1209787                    1      -927.5 +j     33.6      928.1      -0.9993
M1209787                    2      -938.9 +j     34.0      939.5      -0.9993
M1209787                    3      -824.2 +j     65.0      826.8      -0.9969
   TERMINAL TOTAL ............... -2690.6 +j    132.6     2693.9      -0.9988

ELEMENT = "Line.LN6261021-1"
M1209787                    1       927.5 +j    -33.6      928.1      -0.9993
M1209787                    2       938.9 +j    -34.0      939.5      -0.9993
M1209787                    3       824.2 +j    -65.0      826.8      -0.9969
   TERMINAL TOTAL ...............  2690.6 +j   -132.6     2693.9      -0.9988
L2823611                    1      -927.1 +j     34.3      927.7      -0.9993
L2823611                    2      -938.6 +j     34.8      939.2      -0.9993
L2823611                    3      -824.1 +j     65.4      826.7      -0.9969
   TERMINAL TOTAL ............... -2689.7 +j    134.6     2693.1      -0.9988

ELEMENT = "Line.LN5473440-1"
L2823611                    1       921.6 +j    -35.8      922.3      -0.9992
L2823611                    2       938.6 +j    -34.8      939.2      -0.9993
L2823611                    3       824.1 +j    -65.4      826.7      -0.9969
   TERMINAL TOTAL ...............  2684.3 +j   -136.0     2687.8      -0.9987
L3030204                    1      -921.4 +j     36.3      922.1      -0.9992
L3030204                    2      -938.4 +j     35.3      939.1      -0.9993
L3030204                    3      -824.0 +j     65.8      826.6      -0.9968
   TERMINAL TOTAL ............... -2683.7 +j    137.4     2687.3      -0.9987

ELEMENT = "Line.LN5866268-1"
L3030204                    1       912.3 +j    -38.7      913.1      -0.9991
L3030204                    2       938.4 +j    -35.3      939.1      -0.9993
L3030204                    3       824.0 +j    -65.8      826.6      -0.9968
   TERMINAL TOTAL ...............  2674.7 +j   -139.8     2678.4      -0.9986
M1186072                    1      -912.1 +j     39.1      912.9      -0.9991
M1186072                    2      -938.2 +j     35.8      938.9      -0.9993
M1186072                    3      -823.9 +j     66.0      826.6      -0.9968
   TERMINAL TOTAL ............... -2674.2 +j    140.9     2677.9      -0.9986

ELEMENT = "Line.LN0048634_SW"
M1186072                    1       912.1 +j    -39.1      912.9      -0.9991
M1186072                    2       938.2 +j    -35.8      938.9      -0.9993
M1186072                    3       823.9 +j    -66.0      826.6      -0.9968
   TERMINAL TOTAL ...............  2674.2 +j   -140.9     2677.9      -0.9986
D6048634-1_INT              1      -912.1 +j     39.1      912.9      -0.9991
D6048634-1_INT              2      -938.2 +j     35.8      938.9      -0.9993
D6048634-1_INT              3      -823.9 +j     66.0      826.6      -0.9968
...